       6
 i =        1, E =       -33.3952674022
  O        -0.0410889908       -0.0155165091       -0.0717252346
  H         0.0805070732       -0.8206270275        0.4859668338
  H        -0.0127632578        0.8357500497        0.5551180274
  O         4.2500000000        0.0413547756        0.0293205213
  H         3.8853259544       -0.9889588178        0.3146814602
  H         3.8394341237        0.9501498301        0.6275041876
       6
 i =        2, E =       -33.6211669943
  O        -0.0564173270       -0.0254700461       -0.0411889098
  H         0.1293421071       -0.8914157721        0.4567263183
  H        -0.0248060934        0.9138456818        0.5525294090
  O         4.5000000000        0.0302606248        0.0829576215
  H         3.8280169966       -1.0981369832        0.2450367204
  H         3.6254127745        1.0723758073        0.6422646024
